Version 4
SHEET 1 1316 680
WIRE -656 -96 -656 -128
WIRE -448 -96 -448 -128
WIRE -656 16 -656 -16
WIRE -448 16 -448 -16
WIRE 432 32 336 32
WIRE 544 32 432 32
WIRE 544 48 544 32
WIRE -96 64 -96 0
WIRE -32 64 -96 64
WIRE 0 64 -32 64
WIRE 112 64 64 64
WIRE 160 64 112 64
WIRE 256 64 224 64
WIRE 336 96 336 32
WIRE 112 112 112 64
WIRE 432 112 432 96
WIRE 544 144 544 112
WIRE -96 160 -96 128
WIRE -32 176 -32 64
WIRE -16 176 -32 176
WIRE 288 176 240 176
WIRE -624 208 -736 208
WIRE -496 208 -624 208
WIRE -224 208 -272 208
WIRE -64 208 -224 208
WIRE -624 240 -624 208
WIRE -736 256 -736 208
WIRE -32 256 -32 176
WIRE -16 256 -32 256
WIRE 256 256 256 64
WIRE 256 256 240 256
WIRE 336 256 336 192
WIRE 336 256 256 256
WIRE 384 256 336 256
WIRE 592 256 464 256
WIRE 640 256 592 256
WIRE 752 256 640 256
WIRE 912 256 752 256
WIRE 640 272 640 256
WIRE 752 272 752 256
WIRE -496 288 -528 288
WIRE -192 288 -272 288
WIRE -144 288 -192 288
WIRE -192 304 -192 288
WIRE -64 336 -64 208
WIRE -16 336 -64 336
WIRE 288 336 240 336
WIRE -736 352 -736 336
WIRE -624 352 -624 320
WIRE 912 352 912 336
WIRE -496 368 -560 368
WIRE -192 368 -272 368
WIRE 336 368 336 352
WIRE 640 368 640 336
WIRE 752 368 752 336
WIRE -192 400 -192 368
WIRE 112 416 112 400
WIRE -560 480 -560 448
FLAG 112 416 0
FLAG -448 16 0
FLAG 336 368 0
FLAG -656 16 0
FLAG 912 352 0
FLAG 336 32 VIN
FLAG 592 256 VOUT
FLAG -448 -128 VGG
FLAG -656 -128 VIN
FLAG -192 400 0
FLAG -560 480 0
FLAG -528 288 0
FLAG -96 0 VGG
FLAG -144 288 VGG
FLAG -224 208 VPWM
FLAG -96 160 0
FLAG 432 112 0
FLAG -736 352 0
FLAG -736 208 VMOD
FLAG -624 352 0
FLAG 640 368 0
FLAG 752 368 0
FLAG 544 144 0
SYMBOL voltage -448 -112 R0
WINDOW 3 20 97 Left 2
WINDOW 123 20 153 Left 2
WINDOW 39 20 125 Left 2
SYMATTR Value 5
SYMATTR SpiceLine Rser=.1
SYMATTR InstName V1
SYMBOL nmos 288 96 R0
SYMATTR InstName Q1
SYMATTR Value BSC050NE2LS
SYMBOL cap 224 48 R90
WINDOW 0 0 32 VBottom 2
WINDOW 3 32 32 VTop 2
SYMATTR InstName C1
SYMATTR Value 0.1µ
SYMATTR SpiceLine V=100 Irms=1.4 Rser=0.0913262 Lser=0 mfg="KEMET" pn="C0805C104K1RAC" type="X7R"
SYMBOL voltage -656 -112 R0
WINDOW 123 24 152 Left 2
WINDOW 39 24 124 Left 2
SYMATTR SpiceLine Rser=.05
SYMATTR InstName V3
SYMATTR Value 12
SYMBOL ind 368 272 R270
WINDOW 0 32 56 VTop 2
WINDOW 3 5 56 VBottom 2
SYMATTR InstName L1
SYMATTR Value 33µ
SYMATTR SpiceLine Ipk=5.9 Rser=0.00186 Rpar=3108.6 Cpar=0 mfg="Coilcraft" pn="SER2915H-333"
SYMBOL PowerProducts\\LTC4449 112 256 R0
SYMATTR InstName U1
SYMBOL schottky 0 80 R270
WINDOW 0 32 32 VTop 2
WINDOW 3 0 32 VBottom 2
SYMATTR InstName D1
SYMATTR Value 1N5819
SYMATTR Description Diode
SYMATTR Type diode
SYMBOL res 896 240 R0
SYMATTR InstName R1
SYMATTR Value 4
SYMBOL SpecialFunctions\\LTC6992-3 -384 288 R0
SYMATTR InstName U2
SYMBOL res -576 352 R0
SYMATTR InstName R2
SYMATTR Value 66.6k
SYMBOL cap 416 32 R0
WINDOW 0 -34 33 Left 2
SYMATTR InstName C5
SYMATTR Value 4.7µ
SYMATTR SpiceLine V=25 Irms=11 Rser=0.00897799 Lser=0 mfg="KEMET" pn="C1210C475K3RAC" type="X7R"
SYMBOL voltage -736 240 R0
WINDOW 3 -79 55 Left 2
WINDOW 123 24 44 Left 2
WINDOW 39 0 0 Left 2
WINDOW 0 -72 14 Left 2
SYMATTR Value 0.5
SYMATTR InstName V2
SYMBOL res -640 224 R0
SYMATTR InstName R3
SYMATTR Value 1k
SYMBOL cap 528 48 R0
SYMATTR InstName C8
SYMATTR Value 1µ
SYMATTR SpiceLine V=25 Irms=5.65 Rser=0.00828976 Lser=0 mfg="KEMET" pn="C0805C105K3PAC" type="X5R"
SYMBOL cap 624 272 R0
SYMATTR InstName C6
SYMATTR Value 1.5µ
SYMATTR SpiceLine V=25 Irms=4.01 Rser=0.0111482 Lser=0 mfg="KEMET" pn="C1206C155K3RAC" type="X7R"
SYMBOL cap 736 272 R0
SYMATTR InstName C7
SYMATTR Value 0.1µ
SYMBOL cap -208 304 R0
SYMATTR InstName C3
SYMATTR Value 1µ
SYMATTR SpiceLine V=25 Irms=5.65 Rser=0.00828976 Lser=0 mfg="KEMET" pn="C0805C105K3PAC" type="X5R"
SYMBOL cap -112 64 R0
SYMATTR InstName C4
SYMATTR Value 1µ
SYMATTR SpiceLine V=25 Irms=5.65 Rser=0.00828976 Lser=0 mfg="KEMET" pn="C0805C105K3PAC" type="X5R"
SYMBOL nmos 288 256 R0
SYMATTR InstName Q2
SYMATTR Value BSC050NE2LS
TEXT -8 -112 Left 2 !.tran 0 2.5m 1.5m startup
TEXT 696 -16 Left 2 !.meas TRAN V_out AVG V(vout)\n.meas TRAN V_ripp PP V(vout)\n.meas I_out AVG I(R1)\n.meas I_L,ripp pp I(L1)
TEXT 696 112 Left 2 !.meas P_out AVG V(vout)*I(R1)\n.meas P_in AVG V(vin)*I(V3)\n.meas eff param P_out/P_in
TEXT -1064 8 Left 2 ;.param FX=10k, TX=1/FX\n.step param FX 1k 30k 1k\n.meas Vout,A pp V(VOUT)
